
**** 11/29/16 15:25:31 ****** PSpice Lite (October 2012) ****** ID# 10813 ****

 ** Profile: "SCHEMATIC1-sim1_freqresponse"  [ C:\SP\PSPICE_EXPS\exp10\exp10-PSpiceFiles\SCHEMATIC1\sim1_freqresponse.sim ] 


 ****     CIRCUIT DESCRIPTION


******************************************************************************




** Creating circuit file "sim1_freqresponse.cir" 
** WARNING: THIS AUTOMATICALLY GENERATED FILE MAY BE OVERWRITTEN BY SUBSEQUENT SIMULATIONS

*Libraries: 
* Profile Libraries :
* Local Libraries :
* From [PSPICE NETLIST] section of C:\Users\SRIJANPABBI\AppData\Roaming\SPB_16.6\cdssetup\OrCAD_PSpice/16.6.0/PSpice.ini file:
.lib "nomd.lib" 

*Analysis directives: 
.AC DEC 100 1 1e9
.OPTIONS ADVCONV
.PROBE64 V(alias(*)) I(alias(*)) W(alias(*)) D(alias(*)) NOISE(alias(*)) 
.INC "..\SCHEMATIC1.net" 



**** INCLUDING SCHEMATIC1.net ****
* source EXP10
R_R1         N00112 N00119  1k TC=0,0 
L_L1         N00119 0  10uH  
V_V1         N00112 0 DC 0Vdc AC 1Vac 

**** RESUMING sim1_freqresponse.cir ****
.END

**** 11/29/16 15:25:31 ****** PSpice Lite (October 2012) ****** ID# 10813 ****

 ** Profile: "SCHEMATIC1-sim1_freqresponse"  [ C:\SP\PSPICE_EXPS\exp10\exp10-PSpiceFiles\SCHEMATIC1\sim1_freqresponse.sim ] 


 ****     SMALL SIGNAL BIAS SOLUTION       TEMPERATURE =   27.000 DEG C


******************************************************************************



 NODE   VOLTAGE     NODE   VOLTAGE     NODE   VOLTAGE     NODE   VOLTAGE


(N00112)    0.0000 (N00119)    0.0000 




    VOLTAGE SOURCE CURRENTS
    NAME         CURRENT

    V_V1         0.000E+00

    TOTAL POWER DISSIPATION   0.00E+00  WATTS



          JOB CONCLUDED

**** 11/29/16 15:25:31 ****** PSpice Lite (October 2012) ****** ID# 10813 ****

 ** Profile: "SCHEMATIC1-sim1_freqresponse"  [ C:\SP\PSPICE_EXPS\exp10\exp10-PSpiceFiles\SCHEMATIC1\sim1_freqresponse.sim ] 


 ****     JOB STATISTICS SUMMARY


******************************************************************************



  Total job time (using Solver 1)   =         .03
