
**** 11/30/16 10:52:10 ****** PSpice Lite (October 2012) ****** ID# 10813 ****

 ** Profile: "SCHEMATIC1-sim1"  [ C:\sp\Pspice_exps\exp5\exp5-pspicefiles\schematic1\sim1.sim ] 


 ****     CIRCUIT DESCRIPTION


******************************************************************************




** Creating circuit file "sim1.cir" 
** WARNING: THIS AUTOMATICALLY GENERATED FILE MAY BE OVERWRITTEN BY SUBSEQUENT SIMULATIONS

*Libraries: 
* Profile Libraries :
* Local Libraries :
* From [PSPICE NETLIST] section of C:\Users\SRIJANPABBI\AppData\Roaming\SPB_16.6\cdssetup\OrCAD_PSpice/16.6.0/PSpice.ini file:
.lib "nomd.lib" 

*Analysis directives: 
.TRAN  0 50u 0 1u 
.OPTIONS ADVCONV
.PROBE64 V(alias(*)) I(alias(*)) W(alias(*)) D(alias(*)) NOISE(alias(*)) 
.INC "..\SCHEMATIC1.net" 



**** INCLUDING SCHEMATIC1.net ****
* source EXP5
R_R1         N00182 N00189  1.5k TC=0,0 
L_L1         N00189 N00193  8mH  
C_C1         N00200 N00193  5nF  TC=0,0 
V_V1         N00182 N00200  
+PULSE 0 1 0 1ns 1ns 0.5m 1ms
C_C2         0 N01104  10u  TC=0,0 
R_R2         N01088 N01098  1 TC=0,0 
V_V2         N01088 0  
+PULSE 0 1 0 1ns 1ns 1ms 1ms
L_L2         N01098 N01104  50u  
V_V3         N01468 0  
+PULSE 0 1 0 1ns 1ns 1ms 1ms
R_R3         N01468 N01478  8 TC=0,0 
C_C3         0 N01484  10u  TC=0,0 
L_L3         N01478 N01484  10uH  

**** RESUMING sim1.cir ****
.END

ERROR(ORPSIM-15142): Node N00182 is floating

ERROR(ORPSIM-15142): Node N00189 is floating

ERROR(ORPSIM-15142): Node N00193 is floating

ERROR(ORPSIM-15142): Node N00200 is floating
